mtd/3phase_linearization/13Bus_copy/IEEE13Nodeckt_increase_switch_FaultStudy.Txt
FAULT STUDY REPORT

ALL-Node Fault Currents

Bus             Node 1  X/R        Node 2  X/R        Node 3  X/R   ...  (Amps)

"SOURCEBUS",    100419,   4.0,     100419,   4.0,     100418,   4.0
"650",        2101880,   4.6,    2101897,   4.6,    2101882,   4.6
"RG60",       1442300,   2.5,    1468385,   2.5,    1442302,   2.5
"633",           9430,   1.5,       9252,   2.3,       8254,   1.7
"634",          20207,   1.7,      20265,   1.9,      19553,   1.7
"671",           6655,   1.7,       6565,   3.5,       5671,   2.1
"645",           6730,   0.9,       6860,   2.8
"646",           5478,   0.8,       5692,   2.2
"692",           5653,   2.1,       6630,   1.7,       6542,   3.4
"675",           5712,   1.5,       5788,   2.6,       4968,   1.9
"611",           2760,   1.6
"652",           2613,   1.2
"670",           9978,   1.8,       9855,   3.5,       8530,   2.2
"632",          13296,   1.9,      13144,   3.5,      11384,   2.2
"680",           5268,   1.7,       5236,   3.6,       4491,   2.2
"684",           4718,   4.0,       4647,   1.0


ONE-Node to ground Faults

                                      pu Node Voltages (L-N Volts if no base)
Bus         Node  Amps         Node 1     Node 2     Node 3    ...

"SOURCEBUS"    1       105435          0.000      0.955      0.998
"SOURCEBUS"    2       105438          0.998      0.000      0.955
"SOURCEBUS"    3       105434          0.955      0.998      0.000
"650"          1      2810823          0.000      0.894      0.868
"650"          2      2810908          0.868      0.000      0.894
"650"          3      2810908          0.894      0.868      0.000
"RG60"         1      1760485          0.000      0.907      0.999
"RG60"         2      1792360          0.999      0.000      0.923
"RG60"         3      1760528          0.923      0.981      0.000
"633"          1         5477          0.000      1.325      1.254
"633"          2         5393          1.274      0.000      1.224
"633"          3         5354          1.271      1.250      0.000
"634"          1        17258          0.000      1.101      1.065
"634"          2        17262          1.068      0.000      1.060
"634"          3        17007          1.073      1.078      0.000
"671"          1         3631          0.000      1.341      1.261
"671"          2         3596          1.297      0.000      1.193
"671"          3         3512          1.228      1.296      0.000
"645"          2         4986          0.000      1.238
"645"          3         4934          1.215      0.000
"646"          2         4179          0.000      1.239
"646"          3         4131          1.191      0.000
"692"          3         3505          0.000      1.227      1.296
"692"          1         3623          1.261      0.000      1.340
"692"          2         3589          1.193      1.296      0.000
"675"          1         3283          0.000      1.317      1.242
"675"          2         3294          1.276      0.000      1.176
"675"          3         3188          1.199      1.292      0.000
"611"          3         2760          0.000
"652"          1         2613          0.000
"670"          1         5485          0.000      1.343      1.280
"670"          2         5380          1.316      0.000      1.212
"670"          3         5346          1.249      1.290      0.000
"632"          1         7333          0.000      1.344      1.292
"632"          2         7171          1.325      0.000      1.223
"632"          3         7171          1.261      1.287      0.000
"680"          1         2872          0.000      1.341      1.260
"680"          2         2864          1.295      0.000      1.196
"680"          3         2782          1.230      1.295      0.000
"684"          1         3192          0.000      1.231
"684"          3         3095          1.228      0.000

Adjacent Node-Node Faults

                                        pu Node Voltages (L-N Volts if no base)
Bus          Node-Node      Amps        Node 1     Node 2     Node 3    ...

"SOURCEBUS"   1   2       86964         0.500      0.500      1.000
"SOURCEBUS"   2   3       86965         1.000      0.500      0.500
"650"         1   2     1801745         0.536      0.464      1.000
"650"         2   3     1801821         1.000      0.536      0.464
"RG60"        1   2     1246236         0.547      0.500      1.057
"RG60"        2   3     1246297         1.056      0.547      0.500
"633"         1   2        8228         0.495      0.494      0.988
"633"         2   3        7198         0.995      0.515      0.514
"634"         1   2       17568         0.502      0.496      0.985
"634"         2   3       17003         0.986      0.502      0.497
"671"         1   2        5911         0.483      0.482      0.979
"671"         2   3        4989         0.957      0.518      0.517
"645"         2   3        6549         0.513      0.513
"646"         2   3        5368         0.511      0.511
"692"         3   1        5314         0.495      0.495      1.084
"692"         1   2        5889         0.979      0.483      0.482
"675"         1   2        5125         0.484      0.484      0.972
"675"         2   3        4439         0.953      0.517      0.517
"670"         1   2        8888         0.489      0.489      0.995
"670"         2   3        7464         0.979      0.518      0.518
"632"         1   2       11861         0.492      0.492      1.005
"632"         2   3        9939         0.990      0.519      0.518
"680"         1   2        4699         0.488      0.488      0.975
"680"         2   3        3963         0.958      0.514      0.514
"684"         1   3        4556         0.491      0.491
